33
cluster-dyad-h.pdb
N         14.63500       -7.75700       22.12500
C         13.89000       -7.19000       23.22500
C         12.61800       -7.95800       23.56000
O         11.99300       -7.61700       24.56900
C         13.64900       -5.68500       23.10700
C         12.66100       -5.26800       22.07400
C         12.82400       -4.45100       21.01200
N         11.31600       -5.54600       22.21500
C         10.71700       -4.96900       21.17900
N         11.58000       -4.26600       20.45500
H         15.11600       -8.63800       22.23900
H         14.55100       -7.31200       24.08300
H         12.27200       -8.77900       22.93200
H         14.60200       -5.25500       22.79700
H         13.29600       -5.32500       24.07300
H         13.76200       -4.02000       20.66300
H          9.65500       -5.06100       20.95300
H         14.67400       -7.26500       21.23200
H         10.87400       -6.08300       22.96100
H         11.36100       -3.69500       19.63800
N          6.36800       -5.03900       16.80500
C          7.79900       -5.33100       16.67000
C          8.02600       -6.68600       16.03900
O          7.22800       -7.59900       16.24900
C          8.52100       -5.21900       18.00200
S          8.48600       -3.55100       18.69000
H          8.22200       -4.57800       16.00400
H          8.89300       -6.85400       15.40000
H          9.56600       -5.47600       17.82700
H          8.04800       -5.89700       18.71200
H          9.38400       -2.78600       18.05400
H          5.77300       -5.05100       15.98900
H          5.97200       -4.82400       17.72000
