32
leu_gln_ser_CovidProtease_out.pdbqt
N          9.88800       -5.79500       25.46900
H          9.88600       -6.81800       25.47500
H         10.35700       -5.52400       24.60700
C          8.48400       -5.33100       25.43900
C          8.23600       -4.71800       24.04200
O          7.83300       -5.37200       23.08300
N          8.42700       -3.35500       23.99000
H          8.94500       -2.92300       24.74700
C          8.35200       -2.61900       22.73600
C          9.54200       -1.63600       22.69300
O         10.71400       -1.99800       22.60000
N          9.19900       -0.31200       22.83500
H          8.22600       -0.04800       22.96500
C         10.19500        0.73500       23.05300
C          9.91200        1.36500       24.42400
O          9.29400        2.41500       24.56300
O         10.34900        0.63900       25.47800
H          9.84600        0.85200       26.30500
C         10.17700        1.79600       21.95200
O          8.81900        2.06900       21.57300
H          8.86300        2.78700       20.91000
C          7.01200       -1.87700       22.66000
C          6.27300       -2.09500       21.34000
C          6.46200       -0.93400       20.39000
O          7.40300       -0.15100       20.42200
N          5.47900       -0.81900       19.45100
H          5.57700       -0.08700       18.75800
H          4.76500       -1.52200       19.31400
C          8.24200       -4.32600       26.57700
C          6.83100       -4.32700       27.21100
C          6.11500       -5.66900       27.05900
C          5.93600       -3.19200       26.71700
