83
cluster-tetrad-h.pdb
N         14.63500       -7.75700       22.12500
C         13.89000       -7.19000       23.22500
C         12.61800       -7.95800       23.56000
O         11.99300       -7.61700       24.56900
C         13.64900       -5.68500       23.10700
C         12.66100       -5.26800       22.07400
C         12.82400       -4.45100       21.01200
N         11.31600       -5.54600       22.21500
C         10.71700       -4.96900       21.17900
N         11.58000       -4.26600       20.45500
H         15.11600       -8.63800       22.23900
H         14.55100       -7.31200       24.08300
H         12.27200       -8.77900       22.93200
H         14.60200       -5.25500       22.79700
H         13.29600       -5.32500       24.07300
H         13.76200       -4.02000       20.66300
H          9.65500       -5.06100       20.95300
H         14.67400       -7.26500       21.23200
H         10.87400       -6.08300       22.96100
H         11.36100       -3.69500       19.63800
N          3.01600       -4.32400       19.89100
C          2.82600       -5.66400       19.36100
C          3.32900       -5.80700       17.92800
O          3.41200       -6.92700       17.42600
H          1.75500       -5.86700       19.35600
H          3.36600       -6.36900       19.99300
H          2.23300       -3.69300       19.98000
H          3.95100       -4.03000       20.17200
N          3.64000       -4.67600       17.24800
C          4.10800       -4.75200       15.85600
C          5.58000       -5.05600       15.71400
O          6.04400       -5.29900       14.59900
C          3.81700       -3.44200       15.13000
O          4.51700       -2.38300       15.76400
H          2.74600       -3.24000       15.16200
H          4.14000       -3.52200       14.09200
H          3.56100       -5.58400       15.41400
H          3.54900       -3.76800       17.70400
H          4.33600       -1.56700       15.31200
N          6.36800       -5.03900       16.80500
C          7.79900       -5.33100       16.67000
C          8.02600       -6.68600       16.03900
O          7.22800       -7.59900       16.24900
C          8.52100       -5.21900       18.00200
S          8.48600       -3.55100       18.69000
H          8.89300       -6.85400       15.40000
H          9.56600       -5.47600       17.82700
H          8.22200       -4.57800       16.00400
H          8.04800       -5.89700       18.71200
H          9.38400       -2.78600       18.05400
H          5.97200       -4.82400       17.72000
N          9.88800       -5.79500       25.46900
H          9.88600       -6.81800       25.47500
H         10.35700       -5.52400       24.60700
C          8.48400       -5.33100       25.43900
C          8.23600       -4.71800       24.04200
O          7.83300       -5.37200       23.08300
N          8.42700       -3.35500       23.99000
H          8.94500       -2.92300       24.74700
C          8.35200       -2.61900       22.73600
C          9.54200       -1.63600       22.69300
O         10.71400       -1.99800       22.60000
N          9.19900       -0.31200       22.83500
H          8.22600       -0.04800       22.96500
C         10.19500        0.73500       23.05300
C          9.91200        1.36500       24.42400
O          9.29400        2.41500       24.56300
O         10.34900        0.63900       25.47800
H          9.84600        0.85200       26.30500
C         10.17700        1.79600       21.95200
O          8.81900        2.06900       21.57300
H          8.86300        2.78700       20.91000
C          7.01200       -1.87700       22.66000
C          6.27300       -2.09500       21.34000
C          6.46200       -0.93400       20.39000
O          7.40300       -0.15100       20.42200
N          5.47900       -0.81900       19.45100
H          5.57700       -0.08700       18.75800
H          4.76500       -1.52200       19.31400
C          8.24200       -4.32600       26.57700
C          6.83100       -4.32700       27.21100
C          6.11500       -5.66900       27.05900
C          5.93600       -3.19200       26.71700
